<?xml version="1.0" encoding="UTF-8"?>

<!-- generated on 2025-11-08 07:34:16.548274 by osmWebWizard.py UNKNOWN
  options: 
-->

<additional xmlns:xsi="http://www.w3.org/2001/XMLSchema-instance" xsi:noNamespaceSchemaLocation="http://sumo.dlr.de/xsd/additional_file.xsd">
   <edgeData id="wizard_example" period="3600" file="edgeData.xml"/>
</additional>
